/*--------------------------------*- C++ -*----------------------------------*\
| =========                 |                                                 |
| \\      /  F ield         | OpenFOAM: The Open Source CFD Toolbox           |
|  \\    /   O peration     | Version:  1.5                                   |
|   \\  /    A nd           | Web:      http://www.OpenFOAM.org               |
|    \\/     M anipulation  |                                                 |
\*---------------------------------------------------------------------------*/
FoamFile
{
    version     2.0;
    format      ascii;
    class       dictionary;
    object      controlDict;
}
// * * * * * * * * * * * * * * * * * * * * * * * * * * * * * * * * * * * * * //

application interFoam;

startFrom       startTime;

startTime       0;

stopAt          endTime;

endTime         20;

deltaT          0.001;

writeControl    adjustableRunTime;

writeInterval   0.2;

purgeWrite      0;

writeFormat     ascii;

writePrecision  6;

writeCompression uncompressed;

timeFormat      general;

timePrecision   6;

runTimeModifiable yes;

adjustTimeStep  yes;

maxCo           0.25;

maxAlphaCo      0.25;

maxDeltaT       1;

functions
{
    surfaceElevation
    {
        type            surfaceElevation;
        functionObjectLibs ( "libwaves2Foam.so" );
        outputControl   timeStep;
        outputInterval  4;
        setFormat raw;
        interpolationScheme cellPointFace;
        fields (alpha1);
        sets
        (
            lineName0
            {
                type        face;
                axis        y;

                start       (0.1 -0.2 0.05);
                end         (0.1  0.15 0.05);
                nPoints     100;
            }

            lineName1
            {
                type        face;
                axis        y;

                start       (1.1 -0.2 0.05);
                end         (1.1  0.15 0.05);
                nPoints     100;
            }

            lineName2
            {
                type        face;
                axis        y;

                start       (2.1 -0.2 0.05);
                end         (2.1  0.15 0.05);
                nPoints     100;
            }
        );
    }
}

// ************************************************************************* //
