/*--------------------------------*- C++ -*----------------------------------*\
| =========                 |                                                 |
| \\      /  F ield         | OpenFOAM: The Open Source CFD Toolbox           |
|  \\    /   O peration     | Version:  2.1.0                                 |
|   \\  /    A nd           | Web:      www.OpenFOAM.org                      |
|    \\/     M anipulation  |                                                 |
\*---------------------------------------------------------------------------*/
FoamFile
{
    version     2.0;
    format      ascii;
    class       dictionary;
    object      blockMeshDict;
}
// * * * * * * * * * * * * * * * * * * * * * * * * * * * * * * * * * * * * * //

convertToMeters 0.01;

vertices
(
   //x y z
    (0 0 0)		            // 0  
    (30 0 0)		            // 1
    (59 0 0)   		            // 2
    (89.2 0 0)			    // 3	
    (0 37 0) 		            // 4
    (30 37 0)		            // 5  
    (59 37 0)		            // 6
    (89.2 37 0)   		    // 7
    (0 58 0)			    // 8
    (30 58 0) 		            // 9
    (59 58 0)			    // 10
    (89.2 58 0)			    // 11

    (0 0 0.1)                         // 12
    (30 0 0.1)                        // 13
    (59 0 0.1)                        // 14
    (89.2 0 0.1)                      // 15
    (0 37 0.1)                        // 16
    (30 37 0.1)                       // 17
    (59 37 0.1)                       // 18
    (89.2 37 0.1)                     // 19
    (0 58 0.1)                        // 20
    (30 58 0.1)                       // 21
    (59 58 0.1)	                      // 22
    (89.2 58 0.1)	              // 23

 

  
);		            

blocks
(
    hex (0 1 5 4 12 13 17 16) (75 93 1) simpleGrading (1 1 1)			//1	
    hex (1 2 6 5 13 14 18 17) porosity (73 93 1) simpleGrading (1 1 1)		//2
    hex (2 3 7 6 14 15 19 18) (76 93 1) simpleGrading (1 1 1)		        //3
    hex (4 5 9 8 16 17 21 20) (75 53 1) simpleGrading (1 1 1)			//4
    hex (5 6 10 9 17 18 22 21) (73 53 1) simpleGrading (1 1 1)			//5
    hex (6 7 11 10 18 19 23 22) (76 53 1) simpleGrading (1 1 1)			//6
    
);

edges
(
);

patches
(
    wall leftWall
    (
        (0 12 16 4)
        (4 16 20 8)
    )
    wall rightWall
    (
        (3 15 19 7)
        (7 19 23 11)
    )
    wall lowerWall
    (
        (0 1 13 12)
        (1 2 14 13)
        (2 3 15 14)
    )
    patch atmosphere
    (
        (8 9 21 20)
        (9 10 22 21)
        (10 11 23 22)
    )

);

mergePatchPairs
(
);

// ************************************************************************* //
