/*--------------------------------*- C++ -*----------------------------------*\
| =========                 |                                                 |
| \\      /  F ield         | OpenFOAM Extend Project: Open Source CFD        |
|  \\    /   O peration     | Version:  1.6-ext                               |
|   \\  /    A nd           | Web:      www.extend-project.de                 |
|    \\/     M anipulation  |                                                 |
\*---------------------------------------------------------------------------*/
FoamFile
{
    version     2.0;
    format      ascii;
    class       dictionary;
    object      blockMeshDict;
}
// * * * * * * * * * * * * * * * * * * * * * * * * * * * * * * * * * * * * * //

convertToMeters 1;

vertices
(
    (0 0 0)
    (300 0 0)
    (300 10 0)
    (0 10 0)
    (0 0 0.1)
    (300 0 0.1)
    (300 10 0.1)
    (0 10 0.1)
);

blocks
(
    hex (0 1 2 3 4 5 6 7) (600 50 1) simpleGrading (1 1 1)
);

edges
(
);

patches
(
    cyclic cyclic1
    (
        (0 4 7 3)
        (1 5 6 2)
    )
    wall bottom
    (
        (0 1 5 4)
    )
    patch atmosphere
    (
        (3 2 6 7)
    )
);

mergePatchPairs
(
);

// ************************************************************************* //
