/*--------------------------------*- C++ -*----------------------------------*\
| =========                 |                                                 |
| \\      /  F ield         | OpenFOAM Extend Project: Open source CFD        |
|  \\    /   O peration     | Version:  1.6-ext                               |
|   \\  /    A nd           | Web:      www.extend-project.de                 |
|    \\/     M anipulation  |                                                 |
\*---------------------------------------------------------------------------*/
FoamFile
{
    version     2.0;
    format      ascii;
    class       volScalarField;
    location    "0";
    object      alpha1.org;
}
// * * * * * * * * * * * * * * * * * * * * * * * * * * * * * * * * * * * * * //

dimensions      [0 0 0 0 0 0 0];

internalField   uniform 0;

boundaryField
{
    inlet0
    {
        type            waveAlpha;
        refValue        uniform 0;
        refGrad         uniform 0;
        valueFraction   uniform 1;
        value           uniform 0;
    }
    inlet1
    {
        type            waveAlpha;
        refValue        uniform 0;
        refGrad         uniform 0;
        valueFraction   uniform 1;
        value           uniform 0;
    }
    inlet2
    {
        type            waveAlpha;
        refValue        uniform 0;
        refGrad         uniform 0;
        valueFraction   uniform 1;
        value           uniform 0;
    }
    outlet
    {
        type            zeroGradient;
    }
    bottom
    {
        type            zeroGradient;
    }
    atmos
    {
        type            inletOutlet;
        inletValue      uniform 0;
        value           uniform 0;
    }
    internalWall
    {
        type            zeroGradient;
    }
}


// ************************************************************************* //
