/*--------------------------------*- C++ -*----------------------------------*\
| =========                 |                                                 |
| \\      /  F ield         | OpenFOAM: The Open Source CFD Toolbox           |
|  \\    /   O peration     | Version:  1.5                                   |
|   \\  /    A nd           | Web:      http://www.OpenFOAM.org               |
|    \\/     M anipulation  |                                                 |
\*---------------------------------------------------------------------------*/
FoamFile
{
    version     2.0;
    format      ascii;
    class       dictionary;
    object      loggingProperties;
}
// * * * * * * * * * * * * * * * * * * * * * * * * * * * * * * * * * * * * * //

surfaceElevation
{
    type waveGauge;

    pointDistribution userDefinedDistribution;
    N 12;
    xValues nonuniform 12(0.1 2.0 4.0 5.2 10.5 12.5 13.5 14.5 15.7 17.3 19.0 21.0);
    yValues nonuniform 12(-0.09 -0.09 -0.09 -0.09 -0.09 -0.09 -0.09 -0.09 -0.09 -0.09 -0.09 -0.09);
    zValues nonuniform 12(0.005 0.005 0.005 0.005 0.005 0.005 0.005 0.005 0.005 0.005 0.005 0.005);
    
//yValues uniform -0.09;
    //zValues uniform 0.005;
    add       ( 0 0.8 0);
    axis      y;

    // REQURIED ONLY FOR NEW FUNCTIONOBJECT IMPLEMENTATION
    writeControl adjustableRunTime;
    writeInterval 0.025;
}


// ************************************************************************* //
