/*--------------------------------*- C++ -*----------------------------------*\
| =========                 |                                                 |
| \\      /  F ield         | OpenFOAM: The Open Source CFD Toolbox           |
|  \\    /   O peration     | Version:  1.5                                   |
|   \\  /    A nd           | Web:      http://www.OpenFOAM.org               |
|    \\/     M anipulation  |                                                 |
\*---------------------------------------------------------------------------*/
FoamFile
{
    version     2.0;
    format      ascii;
    class       dictionary;
    object      controlDict;
}
// * * * * * * * * * * * * * * * * * * * * * * * * * * * * * * * * * * * * * //

application interFoam;

startFrom       startTime;

startTime       0;

stopAt          endTime;

endTime         7;

deltaT          0.001;

writeControl    adjustableRunTime;

writeInterval   0.10;

purgeWrite      0;

writeFormat     ascii;

writePrecision  6;

writeCompression yes;

timeFormat      general;

timePrecision   6;

runTimeModifiable yes;

adjustTimeStep  yes;

maxCo           0.25;

maxAlphaCo      0.25;

maxDeltaT       0.01;

functions
{
    surfaceElevation
    {
        type               surfaceElevation;

        libs ( "libwaves2Foam.so" );
        writeControl       adjustableRunTime;
        writeInterval      0.050;

        setFormat          raw;
        interpolationScheme cellPointFace;
        fields (alpha.water);

        #includeIfPresent "../waveGaugesNProbes/surfaceElevation_sets";

    }
}

// ************************************************************************* //
