/*--------------------------------*- C++ -*----------------------------------*\
| =========                 |                                                 |
| \\      /  F ield         | OpenFOAM: The Open Source CFD Toolbox           |
|  \\    /   O peration     | Version:  1.5                                   |
|   \\  /    A nd           | Web:      http://www.OpenFOAM.org               |
|    \\/     M anipulation  |                                                 |
\*---------------------------------------------------------------------------*/
FoamFile
{
    version     2.0;
    format      ascii;
    class       dictionary;
    object      stlDefinitions;
}
// * * * * * * * * * * * * * * * * * * * * * * * * * * * * * * * * * * * * * //

geometria
{
    points 4( (6 -0.4 -1) (17 -0.4 -1) (14 -0.1 -1) (12 -0.1 -1) );
    faces 1( (0 1 2 3) );
    
    extrude true;
    extrudeVector (0 0 2);
}

// ************************************************************************* //
